4

C  -0.6155532723049727  0.06005610998280768  0.0
O  -1.7499695623942428  0.03179619480584988  0.0
H  5.616734170956125  -0.09638618929534981  0.0
H  5.6187897069137565  -0.795467120932722  0.0
4

C  -0.5260026629413259  0.05151651844886242  0.0
O  -1.6702204264458695  0.037616526958481895  0.0
H  4.906260871365418  0.044835337869652825  0.0
H  4.89189193338486  -0.8192806311422605  0.0
4

C  -0.43661324555722614  0.042954003370174854  0.0
O  -1.5902381127279435  0.043448447967117255  0.0
H  4.195784502719132  0.185978620643843  0.0
H  4.164986240318847  -0.8430100790697823  0.0
4

C  -0.3473872050784908  0.03435288411624895  0.0
O  -1.509651780778955  0.049275392697565576  0.0
H  3.485324844587627  0.3271357191460974  0.0
H  3.438121799735096  -0.8667548577717324  0.0
4

C  -0.26013706577493134  0.025869309673564152  0.0
O  -1.4295643480596891  0.05513547324878666  0.0
H  2.7749356084829224  0.4687117069914231  0.0
H  2.7110497843991266  -0.890832972372033  0.0
4

C  -0.18278877136230007  0.017730429815890524  0.0
O  -1.3527975114341584  0.06123942130202263  0.0
H  2.0652098723294534  0.6138817967607438  0.0
H  1.9829877561949674  -0.9178683367220823  0.0
4

C  -0.1448404794204033  0.00957988891814181  0.0
O  -1.3056609328979076  0.06956593872265353  0.0
H  1.3582986042905039  0.7855244296299683  0.0
H  1.2509229640912314  -0.9672363433537929  0.0
4

C  0.01347391014138965  -0.0002606197763190036  0.0
O  -1.1865556973276254  0.07247648121521556  0.0
H  0.6433693136375114  0.8907816205407596  0.0
H  0.5310894984866683  -0.9608894516427134  0.0
