           4

 C  -0.61508636621897561        6.0038432510776570E-002  -5.7206220091010732E-008
 O   -1.7495017534715338        3.1749192839790545E-002   4.2996410068404013E-008
 H    5.6162684941306455       -9.6355157806283717E-002   1.5472350024615330E-008
 H    5.6183207096713605      -0.79543347881702409       -1.2625500020086207E-009